<?xml version="1.0" encoding="ISO-8859-1"?>
<metadata xmlns:xsi="https://www.w3.org/2001/XMLSchema-instance" xsi:noNamespaceSchemaLocation="https://water.usgs.gov/GIS/metadata/usgswrd/fgdc-std-001-1998.xsd">
  <Source>http://water.usgs.gov/GIS/metadata/usgswrd/XML/pp1766_stream_loss_nady.xml</Source>
  <idinfo>
    <citation>
      <citeinfo>
        <origin>Faunt, Claudia C.</origin>
        <pubdate>2012</pubdate>
        <title>Streamflow-gain- and streamflow-loss data for streamgages in the Central Valley Hydrologic Model</title>
        <geoform>tabular digital data</geoform>
        <serinfo>
          <sername>Professional Paper</sername>
          <issue>1766</issue>
        </serinfo>
        <pubinfo>
          <pubplace>Reston, Virginia</pubplace>
          <publish>U.S. Geological Survey</publish>
        </pubinfo>
        <onlink>https://water.usgs.gov/lookup/getspatial?pp1766_stream_loss_nady</onlink>
        <lworkcit>
          <citeinfo>
            <origin>Faunt, Claudia C.</origin>
            <pubdate>2009</pubdate>
            <title>Groundwater Availability of the Central Valley Aquifer, California</title>
            <serinfo>
              <sername>Professional Paper</sername>
              <issue>1766</issue>
            </serinfo>
            <pubinfo>
              <pubplace>Reston, VA</pubplace>
              <publish>U.S. Geological Survey</publish>
            </pubinfo>
            <onlink>https://pubs.usgs.gov/pp/1766/</onlink>
          </citeinfo>
        </lworkcit>
      </citeinfo>
    </citation>
    <descript>
      <abstract>This digital dataset contains 61 sets of annual streamflow gains and losses between 1961 and 1977 along Central Valley surface-water network for the Central Valley Hydrologic Model (CVHM).  The Central Valley encompasses an approximate 50,000 square-kilometer region of California. The complex hydrologic system of the Central Valley is simulated using the USGS's numerical modeling code MODFLOW-FMP (Schmid and others, 2006).  This simulation is referred to here as the CVHM (Faunt, 2009). Utilizing MODFLOW-FMP, the CVHM simulates groundwater and surface-water flow, irrigated agriculture, land subsidence, and other key processes in the Central Valley on a monthly basis from 1961-2003.  The total active modeled area is 20,334 square-miles.   The CVHM includes complex surface-water management processes.  The hydrology of the present-day Central Valley and the CVHM model are driven by surface-water deliveries and associated groundwater pumpage.  The Streamflow Routing Package (SFR1) is linked to MODFLOW-FMP to facilitate the simulated conveyance of surface-water deliveries. If surface-water deliveries do not meet the farm-delivery requirement, the FMP invokes simulated groundwater pumping to meet the demand.  The surface-water network represents a subset of the entire stream network in the valley.  Quantitative observations of streamflow gains and losses were available for 57 reaches of 20 major stream systems in the Central Valley for water years 1961-77 (Mullen and Nady, 1985). These observations were included in parameter estimation process and in the model-fit statistics.  The CVHM is the most recent regional-scale model of the Central Valley developed by the U.S. Geological Survey (USGS).  The CVHM was developed as part of the USGS Groundwater Resources Program (see "Foreword", Chapter A, page iii, for details).</abstract>
      <purpose>The stream-flow gains/losses dataset was used as calibration data for MODFLOW-FMP, the USGS 3-dimensional finite-difference code used to simulate flow in the CVHM.  This is a supporting dataset that is used to help calibrate the CVHM. The CVHM is a tool that accounts for integrated, variable water supply and demand, and simulates surface-water and groundwater-flow across the entire Central Valley system.</purpose>
      <supplinf>The stream flow gains/losses dataset is one of many layers in a geospatial database supporting the USGS Central Valley Groundwater Availability Project. Regional groundwater availability studies quantify current groundwater resources, evaluate how those resources have changed through time, and provide tools that decision makers can use to predict system responses to future development and climate variability and change.  To provide information to stakeholders addressing these issues, the USGS made a detailed assessment of groundwater availability of the Central Valley aquifer system, which includes: (1) the present status of groundwater resources; (2) characterization of how these resources have changed over time; and (3) tools to assess system responses to stresses from future human uses and climate variability and change. This effort builds on previous investigations, such as the USGS Central Valley Regional Aquifer System and Analysis (CV-RASA) project and several other groundwater studies in the Valley completed by Federal, State and local agencies at various scales. Data from these previous studies were the foundation of the Central Valley geospatial database. These and other data were re-examined through a series of regional-scale hydrologic investigations to provide updated and spatially consistent interpretations for the Central Valley Groundwater Availability study. In some cases, new data were collected to augment existing information. Data compiled from the studies include geology (in particular, borehole lithology and the extent and thickness of the Corcoran Clay Member of the Tulare Formation), topography, remote sensing, climate (precipitation and temperature), geophysics, vegetation and land use, vegetation properties, hydrology (stream network and flows), groundwater levels, subsidence, chemistry, and soils.  Digital elevation models, geologic maps, borehole information, cross sections, and other 3-dimensional models were used to develop the texture model which represents the properties and geometry of the Central Valley alluvial deposits. The resulting geospatial database supports characterization and conceptualization of the Central Valley hydrologic system between 1961 and 2003, construction of 3-dimensional hydrogeologic framework and hydrologic flow models, and visualization of analysis and model results.</supplinf>
    </descript>
    <timeperd>
      <timeinfo>
        <rngdates>
          <begdate>1961</begdate>
          <enddate>2003</enddate>
        </rngdates>
      </timeinfo>
      <current>publication date</current>
    </timeperd>
    <status>
      <progress>Complete</progress>
      <update>None planned</update>
    </status>
    <spdom>
      <bounding>
        <westbc>-122.368562</westbc>
        <eastbc>-118.965852</eastbc>
        <northbc>40.606449</northbc>
        <southbc>35.231481</southbc>
      </bounding>
    </spdom>
    <keywords>
      <theme>
        <themekt>ISO 19115 Topic Category</themekt>
        <themekey>inlandWaters</themekey>
        <themekey>geoscientificinformation</themekey>
      </theme>
      <theme>
        <themekt>American Geological Institute Glossary of Geology (http://glossary.agiweb.org/dbtw-wpd/glossary/search.aspx)</themekt>
        <themekey>hydrology</themekey>
        <themekey>hydrogeology</themekey>
        <themekey>model</themekey>
        <themekey>groundwater</themekey>
        <themekey>surface water</themekey>
        <themekey>streamflow</themekey>
      </theme>
      <theme>
        <themekt>none</themekt>
        <themekey>Groundwater Availability of the Central Valley Aquifer</themekey>
        <themekey>Central Valley Aquifer</themekey>
        <themekey>Central Valley Hydrologic Model</themekey>
        <themekey>Flow Model CVHM</themekey>
        <themekey>Texture Model</themekey>
        <themekey>CV-RASA</themekey>
      </theme>
      <place>
        <placekt>U.S. Board of Geographic Names (BGN) and Geographic Names Information System (GNIS)</placekt>
        <placekey>California</placekey>
        <placekey>Central Valley</placekey>
        <placekey>Trinity County</placekey>
        <placekey>Shasta County</placekey>
        <placekey>Tehama County</placekey>
        <placekey>Humboldt County</placekey>
        <placekey>Butte County</placekey>
        <placekey>Mendocino County</placekey>
        <placekey>Glenn County</placekey>
        <placekey>Yuba County</placekey>
        <placekey>Lake County</placekey>
        <placekey>Nevada County</placekey>
        <placekey>Colusa County</placekey>
        <placekey>Sutter County</placekey>
        <placekey>Placer County</placekey>
        <placekey>El Dorado County</placekey>
        <placekey>Yolo County</placekey>
        <placekey>Sonoma County</placekey>
        <placekey>Napa County</placekey>
        <placekey>Sacramento County</placekey>
        <placekey>Amador County</placekey>
        <placekey>Solano County</placekey>
        <placekey>Calaveras County</placekey>
        <placekey>Tuolumne County</placekey>
        <placekey>San Joaquin County</placekey>
        <placekey>Contra Costa County</placekey>
        <placekey>Stanislaus County</placekey>
        <placekey>Alameda County</placekey>
        <placekey>Mariposa County</placekey>
        <placekey>Madera County</placekey>
        <placekey>Merced County</placekey>
        <placekey>Fresno County</placekey>
        <placekey>Santa Clara County</placekey>
        <placekey>San Benito County</placekey>
        <placekey>Monterey County</placekey>
        <placekey>Tulare County</placekey>
        <placekey>Kings County</placekey>
        <placekey>Kern County</placekey>
        <placekey>San Luis Obispo County</placekey>
        <placekey>Santa Barbara County</placekey>
        <placekey>Ventura County</placekey>
        <placekey>Sacramento Valley</placekey>
        <placekey>San Joaquin Valley</placekey>
        <placekey>Central Valley, California</placekey>
      </place>
    </keywords>
    <accconst>None</accconst>
    <useconst>
Data have been checked to ensure the accuracy of the data. If any errors are detected, please notify the originating office. The U.S. Geological Survey strongly recommends that careful attention be paid to the metadata file associated with these data. The U.S. Geological Survey shall not be held liable for improper or incorrect use of the data described and (or) contained herein.

Acknowledgement of the U.S. Geological Survey would be appreciated in products derived from these data.

Any use of trade, product, or firm names is for descriptive purposes only and does not imply endorsement by the U.S. Government. Although this Federal Geographic Data Committee-compliant metadata file is intended to document the dataset in nonproprietary form, as well as in ArcGIS format, this metadata file may include some ArcGIS-specific terminology.
</useconst>
    <ptcontac>
      <cntinfo>
        <cntperp>
          <cntper>Claudia C. Faunt</cntper>
          <cntorg>U.S. Geological Survey</cntorg>
        </cntperp>
        <cntpos>Hydrologist</cntpos>
        <cntaddr>
          <addrtype>mailing and physical address</addrtype>
          <address>4165 Spruance Road, Suite 200</address>
          <city>San Diego</city>
          <state>CA</state>
          <postal>92101</postal>
          <country>USA</country>
        </cntaddr>
        <cntvoice>(619) 225-6142</cntvoice>
        <cntfax>(619) 225-6101</cntfax>
        <cntemail>ccfaunt@usgs.gov</cntemail>
      </cntinfo>
    </ptcontac>
    <browse>
      <browsen>https://water.usgs.gov/GIS/browse/pp1766_stream_flow_loss.png</browsen>
      <browsed>Illlustration of data set</browsed>
      <browset>PNG</browset>
    </browse>
    <datacred>Spatial datasets supporting the Central Valley Groundwater Availability project were developed primarily by the U.S. Geological Survey's (USGS) Groundwater Resources Program.  This program is conducting large-scale multidisciplinary regional studies of groundwater availability.  The U.S. Bureau of Reclamation is supporting the updating of the Central Valley datasets and their documentation and release.</datacred>
    <native>Microsoft Windows XP Version 5.1 (Build 2600) Service Pack 3; ESRI ArcCatalog 9.3.1.3500</native>
    <crossref>
      <citeinfo>
        <origin>Schmid, Wolfgang</origin>
        <origin>Hanson, R. T.</origin>
        <origin>Maddock, Thomas, III</origin>
        <origin>Leake, S. A.</origin>
        <pubdate>2006</pubdate>
        <title>User guide for the farm process (FMP1) for the U.S. Geological Survey's modular three-dimensional finite-difference ground-water flow model, MODFLOW-2000</title>
        <serinfo>
          <sername>Techniques and Methods</sername>
          <issue>6-A17</issue>
        </serinfo>
        <pubinfo>
          <pubplace>Sacramento, CA</pubplace>
          <publish>USGS California Water Science Center</publish>
        </pubinfo>
        <onlink>https://pubs.usgs.gov/tm/2006/tm6A17/</onlink>
      </citeinfo>
    </crossref>
  </idinfo>
  <dataqual>
    <attracc>
      <attraccr>In addition, attributes were checked and evaluated as part of the review process associated with the publication of the source report.</attraccr>
    </attracc>
    <logic>Tabular, non-spatial dataset:  Categories were determined by the dataset Originator, who transcribed them into this table</logic>
    <complete>The measurements in this dataset are computer-generated and represent the model grid and model layers of the Central Valley Hydrologic Model. The dataset is complete and is not anticipated to change.</complete>
    <posacc>
      <horizpa>
        <horizpar>This table is ancillary to a point dataset whose positional accuracy was based on geographic coordinates encoded by USGS standards for USGS National Water Information System data</horizpar>
      </horizpa>
    </posacc>
    <lineage>
      <srcinfo>
        <srccite>
          <citeinfo>
            <origin>Mullen, J.R.</origin>
            <origin>Nady, Paul</origin>
            <pubdate>1985</pubdate>
            <title>Water budgets for major streams in the Central Valley, California, 1961-77</title>
            <serinfo>
              <sername>Open-File Report</sername>
              <issue>85-401</issue>
            </serinfo>
            <pubinfo>
              <pubplace>Reston, VA</pubplace>
              <publish>U.S. Geological Survey</publish>
            </pubinfo>
            <onlink>https://pubs.usgs.gov/of/1985/0401/report.pdf</onlink>
          </citeinfo>
        </srccite>
        <typesrc>online</typesrc>
        <srctime>
          <timeinfo>
            <sngdate>
              <caldate>1985</caldate>
            </sngdate>
          </timeinfo>
          <srccurr>publication date</srccurr>
        </srctime>
        <srccitea>Mullen and Nady (1985)</srccitea>
        <srccontr>annual streamflow gains and losses between 1961 and 1977</srccontr>
      </srcinfo>
      <procstep>
        <procdesc>Quantitative observations of streamflow gains and losses were available for 57 reaches of 20 major stream systems in the Central Valley for water years 1961-77 (Mullen and Nady, 1985). These observations were included in parameter estimation process and in the model-fit statistics.  The data was tabulated and included in the model.</procdesc>
        <procdate>2009</procdate>
      </procstep>
    </lineage>
  </dataqual>
  <spdoinfo>
    <indspref>Central Valley, comprised of the Sacramento Valley on the north and the San Joaquin Valley on the south, located in the state of California.</indspref>
    <direct>Vector</direct>
    <ptvctinf>
      <sdtsterm>
        <sdtstype>Entity point</sdtstype>
        <ptvctcnt>66</ptvctcnt>
      </sdtsterm>
    </ptvctinf>
  </spdoinfo>
  <spref>
    <horizsys>
      <planar>
        <mapproj>
          <mapprojn>Albers Conical Equal Area</mapprojn>
          <albers>
            <stdparll>29.500000</stdparll>
            <stdparll>45.500000</stdparll>
            <longcm>-120.000000</longcm>
            <latprjo>23.000000</latprjo>
            <feast>0.000000</feast>
            <fnorth>0.000000</fnorth>
          </albers>
        </mapproj>
        <planci>
          <plance>coordinate pair</plance>
          <coordrep>
            <absres>100</absres>
            <ordres>100</ordres>
          </coordrep>
          <plandu>meters</plandu>
        </planci>
      </planar>
      <geodetic>
        <horizdn>North American Datum of 1983</horizdn>
        <ellips>Geodetic Reference System 80</ellips>
        <semiaxis>6378137.000000</semiaxis>
        <denflat>298.257222</denflat>
      </geodetic>
    </horizsys>
  </spref>
  <eainfo>
    <detailed>
      <enttyp>
        <enttypl>stream_loss_nady</enttypl>
        <enttypd>Stream flow segment gains and losses between 1961 and 1977</enttypd>
        <enttypds>dataset originator</enttypds>
      </enttyp>
      <attr>
        <attrlabl>Year</attrlabl>
        <attrdef>Calendar year represented in numeric form (YYYY)</attrdef>
        <attrdefs>dataset originator</attrdefs>
        <attrdomv>
          <rdom>
            <rdommin>1961</rdommin>
            <rdommax>1977</rdommax>
            <attrunit>Calendar Year</attrunit>
          </rdom>
        </attrdomv>
        <begdatea>1961</begdatea>
        <enddatea>1977</enddatea>
      </attr>
      <attr>
        <attrlabl>NAME</attrlabl>
        <attrdef>Name of up and/or downstream point to divide stream flow losses</attrdef>
        <attrdefs>dataset originator</attrdefs>
        <attrdomv>
          <udom>Text string</udom>
        </attrdomv>
      </attr>
      <attr>
        <attrlabl>Kern_5</attrlabl>
        <attrdef>Stream flow gain/loss along segment Kern_5</attrdef>
        <attrdefs>dataset originator</attrdefs>
        <attrdomv>
          <rdom>
            <rdommin>1109700</rdommin>
            <rdommax>64732500</rdommax>
            <attrunit>Cubic meters per year</attrunit>
          </rdom>
        </attrdomv>
      </attr>
      <attr>
        <attrlabl>Kern_9</attrlabl>
        <attrdef>Stream flow gain/loss along segment Kern_9</attrdef>
        <attrdefs>dataset originator</attrdefs>
        <attrdomv>
          <rdom>
            <rdommin>-159550200</rdommin>
            <rdommax>-6165000</rdommax>
            <attrunit>Cubic meters per year</attrunit>
          </rdom>
        </attrdomv>
      </attr>
      <attr>
        <attrlabl>Kern_28</attrlabl>
        <attrdef>Stream flow gain/loss along segment Kern_28</attrdef>
        <attrdefs>dataset originator</attrdefs>
        <attrdomv>
          <rdom>
            <rdommin>-97283700</rdommin>
            <rdommax>431919900</rdommax>
            <attrunit>Cubic meters per year</attrunit>
          </rdom>
        </attrdomv>
      </attr>
      <attr>
        <attrlabl>Tule_12</attrlabl>
        <attrdef>Stream flow gain/loss along segment Tule_12</attrdef>
        <attrdefs>dataset originator</attrdefs>
        <attrdomv>
          <rdom>
            <rdommin>5301900</rdommin>
            <rdommax>40442400</rdommax>
            <attrunit>Cubic meters per year</attrunit>
          </rdom>
        </attrdomv>
      </attr>
      <attr>
        <attrlabl>Tule_15</attrlabl>
        <attrdef>Stream flow gain/loss along segment Tule_15</attrdef>
        <attrdefs>dataset originator</attrdefs>
        <attrdomv>
          <rdom>
            <rdommin>0</rdommin>
            <rdommax>94941000</rdommax>
            <attrunit>Cubic meters per year</attrunit>
          </rdom>
        </attrdomv>
      </attr>
      <attr>
        <attrlabl>Tule_18</attrlabl>
        <attrdef>Stream flow gain/loss along segment Tule_18</attrdef>
        <attrdefs>dataset originator</attrdefs>
        <attrdomv>
          <rdom>
            <rdommin>0</rdommin>
            <rdommax>119970900</rdommax>
            <attrunit>Cubic meters per year</attrunit>
          </rdom>
        </attrdomv>
      </attr>
      <attr>
        <attrlabl>Tule_23</attrlabl>
        <attrdef>Stream flow gain/loss along segment Tule_23</attrdef>
        <attrdefs>dataset originator</attrdefs>
        <attrdomv>
          <rdom>
            <rdommin>-739800</rdommin>
            <rdommax>37853100</rdommax>
            <attrunit>Cubic meters per year</attrunit>
          </rdom>
        </attrdomv>
      </attr>
      <attr>
        <attrlabl>Tule_27</attrlabl>
        <attrdef>Stream flow gain/loss along segment Tule_27</attrdef>
        <attrdefs>dataset originator</attrdefs>
        <attrdomv>
          <rdom>
            <rdommin>-12330000</rdommin>
            <rdommax>12206700</rdommax>
            <attrunit>Cubic meters per year</attrunit>
          </rdom>
        </attrdomv>
      </attr>
      <attr>
        <attrlabl>Kawe_8</attrlabl>
        <attrdef>Stream flow gain/loss along segment Kawe_8</attrdef>
        <attrdefs>dataset originator</attrdefs>
        <attrdomv>
          <rdom>
            <rdommin>-31934700</rdommin>
            <rdommax>-369900</rdommax>
            <attrunit>Cubic meters per year</attrunit>
          </rdom>
        </attrdomv>
      </attr>
      <attr>
        <attrlabl>Kawe_20</attrlabl>
        <attrdef>Stream flow gain/loss along segment Kawe_20</attrdef>
        <attrdefs>dataset originator</attrdefs>
        <attrdomv>
          <rdom>
            <rdommin>-13069800</rdommin>
            <rdommax>11960100</rdommax>
            <attrunit>Cubic meters per year</attrunit>
          </rdom>
        </attrdomv>
      </attr>
      <attr>
        <attrlabl>Kawe_33</attrlabl>
        <attrdef>Stream flow gain/loss along segment Kawe_33</attrdef>
        <attrdefs>dataset originator</attrdefs>
        <attrdomv>
          <rdom>
            <rdommin>14672700</rdommin>
            <rdommax>35880300</rdommax>
            <attrunit>Cubic meters per year</attrunit>
          </rdom>
        </attrdomv>
      </attr>
      <attr>
        <attrlabl>StJo_24</attrlabl>
        <attrdef>Stream flow gain/loss along segment StJo_24</attrdef>
        <attrdefs>dataset originator</attrdefs>
        <attrdomv>
          <rdom>
            <rdommin>6658200</rdommin>
            <rdommax>145494000</rdommax>
            <attrunit>Cubic meters per year</attrunit>
          </rdom>
        </attrdomv>
      </attr>
      <attr>
        <attrlabl>King_8</attrlabl>
        <attrdef>Stream flow gain/loss along segment King_8</attrdef>
        <attrdefs>dataset originator</attrdefs>
        <attrdomv>
          <rdom>
            <rdommin>-124039800</rdommin>
            <rdommax>8877600</rdommax>
            <attrunit>Cubic meters per year</attrunit>
          </rdom>
        </attrdomv>
      </attr>
      <attr>
        <attrlabl>King_12</attrlabl>
        <attrdef>Stream flow gain/loss along segment King_12</attrdef>
        <attrdefs>dataset originator</attrdefs>
        <attrdomv>
          <rdom>
            <rdommin>-52772400</rdommin>
            <rdommax>77432400</rdommax>
            <attrunit>Cubic meters per year</attrunit>
          </rdom>
        </attrdomv>
      </attr>
      <attr>
        <attrlabl>King_21</attrlabl>
        <attrdef>Stream flow gain/loss along segment King_21</attrdef>
        <attrdefs>dataset originator</attrdefs>
        <attrdomv>
          <rdom>
            <rdommin>54128700</rdommin>
            <rdommax>123793200</rdommax>
            <attrunit>Cubic meters per year</attrunit>
          </rdom>
        </attrdomv>
      </attr>
      <attr>
        <attrlabl>King_26</attrlabl>
        <attrdef>Stream flow gain/loss along segment King_26</attrdef>
        <attrdefs>dataset originator</attrdefs>
        <attrdomv>
          <rdom>
            <rdommin>123300</rdommin>
            <rdommax>23303700</rdommax>
            <attrunit>Cubic meters per year</attrunit>
          </rdom>
        </attrdomv>
      </attr>
      <attr>
        <attrlabl>King_32</attrlabl>
        <attrdef>Stream flow gain/loss along segment King_32</attrdef>
        <attrdefs>dataset originatorr</attrdefs>
        <attrdomv>
          <rdom>
            <rdommin>-2959200</rdommin>
            <rdommax>36003600</rdommax>
            <attrunit>Cubic meters per year</attrunit>
          </rdom>
        </attrdomv>
      </attr>
      <attr>
        <attrlabl>King_36</attrlabl>
        <attrdef>Stream flow gain/loss along segment King_36</attrdef>
        <attrdefs>dataset originator</attrdefs>
        <attrdomv>
          <rdom>
            <rdommin>0</rdommin>
            <rdommax>72870300</rdommax>
            <attrunit>Cubic meters per year</attrunit>
          </rdom>
        </attrdomv>
      </attr>
      <attr>
        <attrlabl>King_40</attrlabl>
        <attrdef>Stream flow gain/loss along segment King_40</attrdef>
        <attrdefs>dataset originator</attrdefs>
        <attrdomv>
          <rdom>
            <rdommin>0</rdommin>
            <rdommax>63129600</rdommax>
            <attrunit>Cubic meters per year</attrunit>
          </rdom>
        </attrdomv>
      </attr>
      <attr>
        <attrlabl>King_54</attrlabl>
        <attrdef>Stream flow gain/loss along segment King_54</attrdef>
        <attrdefs>dataset originator</attrdefs>
        <attrdomv>
          <rdom>
            <rdommin>-32058000</rdommin>
            <rdommax>24660000</rdommax>
            <attrunit>Cubic meters per year</attrunit>
          </rdom>
        </attrdomv>
      </attr>
      <attr>
        <attrlabl>SanJ_13</attrlabl>
        <attrdef>Stream flow gain/loss along segment SanJ_13</attrdef>
        <attrdefs>dataset originator</attrdefs>
        <attrdomv>
          <rdom>
            <rdommin>141918300</rdommin>
            <rdommax>304427700</rdommax>
            <attrunit>Cubic meters per year</attrunit>
          </rdom>
        </attrdomv>
      </attr>
      <attr>
        <attrlabl>SanJ_19</attrlabl>
        <attrdef>Stream flow gain/loss along segment SanJ_19</attrdef>
        <attrdefs>dataset originator</attrdefs>
        <attrdomv>
          <rdom>
            <rdommin>-13069800</rdommin>
            <rdommax>64855800</rdommax>
            <attrunit>Cubic meters per year</attrunit>
          </rdom>
        </attrdomv>
      </attr>
      <attr>
        <attrlabl>SanJ_25</attrlabl>
        <attrdef>Stream flow gain/loss along segment SanJ_25</attrdef>
        <attrdefs>dataset originator</attrdefs>
        <attrdomv>
          <rdom>
            <rdommin>246600</rdommin>
            <rdommax>335129400</rdommax>
            <attrunit>Cubic meters per year</attrunit>
          </rdom>
        </attrdomv>
      </attr>
      <attr>
        <attrlabl>SanJ_34</attrlabl>
        <attrdef>Stream flow gain/loss along segment SanJ_34</attrdef>
        <attrdefs>dataset originator</attrdefs>
        <attrdomv>
          <rdom>
            <rdommin>-168921000</rdommin>
            <rdommax>-1479600</rdommax>
            <attrunit>Cubic meters per year</attrunit>
          </rdom>
        </attrdomv>
      </attr>
      <attr>
        <attrlabl>SanJ_39</attrlabl>
        <attrdef>Stream flow gain/loss along segment SanJ_39</attrdef>
        <attrdefs>dataset originator</attrdefs>
        <attrdomv>
          <rdom>
            <rdommin>-36990000</rdommin>
            <rdommax>2584368000</rdommax>
            <attrunit>Cubic meters per year</attrunit>
          </rdom>
        </attrdomv>
      </attr>
      <attr>
        <attrlabl>SanJ_47</attrlabl>
        <attrdef>Stream flow gain/loss along segment SanJ_47</attrdef>
        <attrdefs>dataset originator</attrdefs>
        <attrdomv>
          <rdom>
            <rdommin>-89392500</rdommin>
            <rdommax>1007607600</rdommax>
            <attrunit>Cubic meters per year</attrunit>
          </rdom>
        </attrdomv>
      </attr>
      <attr>
        <attrlabl>SanJ_54</attrlabl>
        <attrdef>Stream flow gain/loss along segment SanJ_54</attrdef>
        <attrdefs>dataset originator</attrdefs>
        <attrdomv>
          <rdom>
            <rdommin>-151659000</rdommin>
            <rdommax>-5548500</rdommax>
            <attrunit>Cubic meters per year</attrunit>
          </rdom>
        </attrdomv>
      </attr>
      <attr>
        <attrlabl>SanJ_59</attrlabl>
        <attrdef>Stream flow gain/loss along segment SanJ_59</attrdef>
        <attrdefs>dataset originator</attrdefs>
        <attrdomv>
          <rdom>
            <rdommin>-91611900</rdommin>
            <rdommax>-66335400</rdommax>
            <attrunit>Cubic meters per year</attrunit>
          </rdom>
        </attrdomv>
      </attr>
      <attr>
        <attrlabl>SanJ_69</attrlabl>
        <attrdef>Stream flow gain/loss along segment SanJ_69</attrdef>
        <attrdefs>dataset originator</attrdefs>
        <attrdomv>
          <rdom>
            <rdommin>-195923700</rdommin>
            <rdommax>148576500</rdommax>
            <attrunit>Cubic meters per year</attrunit>
          </rdom>
        </attrdomv>
      </attr>
      <attr>
        <attrlabl>SanJ_74</attrlabl>
        <attrdef>Stream flow gain/loss along segment SanJ_74</attrdef>
        <attrdefs>dataset originator</attrdefs>
        <attrdomv>
          <rdom>
            <rdommin>-343760400</rdommin>
            <rdommax>99133200</rdommax>
            <attrunit>Cubic meters per year</attrunit>
          </rdom>
        </attrdomv>
      </attr>
      <attr>
        <attrlabl>Fres_9</attrlabl>
        <attrdef>Stream flow gain/loss along segment Fres_9</attrdef>
        <attrdefs>dataset originator</attrdefs>
        <attrdomv>
          <rdom>
            <rdommin>-49443300</rdommin>
            <rdommax>26262900</rdommax>
            <attrunit>Cubic meters per year</attrunit>
          </rdom>
        </attrdomv>
      </attr>
      <attr>
        <attrlabl>Fres_13</attrlabl>
        <attrdef>Stream flow gain/loss along segment Fres_13</attrdef>
        <attrdefs>dataset originator</attrdefs>
        <attrdomv>
          <rdom>
            <rdommin>0</rdommin>
            <rdommax>45744300</rdommax>