<?xml version="1.0" encoding="ISO-8859-1"?>
<metadata xmlns:xsi="https://www.w3.org/2001/XMLSchema-instance" xsi:noNamespaceSchemaLocation="https://water.usgs.gov/GIS/metadata/usgswrd/fgdc-std-001-1998.xsd">
  <Source>http://water.usgs.gov/GIS/metadata/usgswrd/XML/sir2016-5116.xml</Source>
  <idinfo>
    <citation>
      <citeinfo>
        <origin>Eve L. Kuniansky</origin>
        <pubdate>2016</pubdate>
        <title>MODFLOW and MODFLOW Conduit Flow Process data sets for simulation experiments of the Woodville Karst Plain, near Tallahassee, Florida with three different approaches and different stress periods</title>
        <geoform>groundwater simulation</geoform>
        <pubinfo>
          <pubplace>Reston, Va., USA</pubplace>
          <publish>U.S. Geological Survey</publish>
        </pubinfo>
        <onlink>https://dx.doi.org/10.5066/F7PK0D87</onlink>
        <lworkcit>
          <citeinfo>
            <origin>Eve L. Kunianksy</origin>
            <pubdate>2016</pubdate>
            <title>Simulating Groundwater Flow in Karst Aquifers with Distributed Parameter Models—Comparison of Equivalent Porous Media and Hybrid Flow Approaches</title>
            <geoform>Publication</geoform>
            <serinfo>
              <sername>Scientific Investigations Report</sername>
              <issue>2016-5116</issue>
            </serinfo>
            <pubinfo>
              <pubplace>Reston, Va., USA</pubplace>
              <publish>U.S. Geological Survey</publish>
            </pubinfo>
            <onlink>https://dx.doi.org/10.3133/sir20165116</onlink>
          </citeinfo>
        </lworkcit>
      </citeinfo>
    </citation>
    <descript>
      <abstract>This Data Release has 18 different groundwater flow simulation applications for the Woodville Karst Plain area near Tallahassee Florida with three variations of distributed parameter model approach.  The site model files provided include both calibrated and uncalibrated simulations of various steady-state and transient hydrologic conditions. Simulations were accomplished with equivalent porous media models that allow laminar flow only (MODFLOW) or laminar and non-laminar flow in a model layer (MODFLOW-CFP mode 2) and hybrid model simulations (MODFLOW-CFP mode 1 one-dimensional pipe network linked to equivalent porous media model). The test examples of the application of equivalent porous media model (the sponge) with and without turbulence and a hybrid model (sponge with pipes) to the Woodville Karst Plain near Tallahassee, Florida, indicated that for annual, monthly, or seasonal average hydrologic conditions, all methods met calibration criteria (matched observed water levels and average flow). Thus, the increased effort, such as the collection of data on conduit location and the computational time of a hybrid model, is not necessary for simulation of average hydrologic conditions (simulation of non-laminar flow was not critical). However, simulation of a large storm event in the Woodville Karst Plain with daily stress periods (52-day period beginning August 13, 2008) indicated that turbulence is important for matching daily springflow hydrographs and models calibrated to average conditions did not match daily storm spring hydrographs. All models were developed from an equivalent porous media model for the area calibrated by J. Hal Davis, USGS, Tallahasee Florida Office that is documented in Davis, J.H., Katz, B.G., and Griffin, D.W., 2010, Nitrate-N movement in groundwater from the land application of treated municipal wastewater and other sources in the Wakulla Springs springshed, Leon and Wakulla Counties, Florida, 1966–2018: U.S. Geological Survey Scientific Investigations Report 2010–5099, 90 p. (https://pubs.usgs.gov/sir/2010/5099/). The hybrid model was developed by Josue J. Gallegos and documented in  Gallegos, J.J., Hu, B.X., and Davis, Hal, 2013, Simulating flow in karst aquifers at laboratory and sub-regional scales using MODFLOW-CFP: Hydrogeology Journal, v. 21, no. 8, p. 1749–1760. </abstract>
      <purpose>The groundwater simulation files provided in this data release were developed to help illustrate the appropriate application of hybrid models or equivalent porous media models for karst aquifers with first magnitude springs. The discussion of the simulations are documented in Kuniansky, E.L., 2016, Simulating Groundwater Flow in Karst Aquifers with Distributed Parameter Models—Comparison of Equivalent Porous Media and Hybrid Flow Approaches: U.S. Geological Survey Scientific Investigations Report 2016-5116 (https://dx.doi.org/10.3133/sir20165116).</purpose>
      <supplinf>The simulation data release is broken into parts. Discussion of simulations are described in the associated scientific investigations report (https://dx.doi.org/10.3133/sir20165116). To use the data sets one must be familiar with running MODFLOW software. Descriptions and organization of the data sets are in the top level ASCII file entitled readme1st.txt, which is part of this data release. Additional ASCII files with the readme prefix have more details within some subfolders. All simulations were run in 2016 on Windows 7, 64-bit Operating System personal computer. The U. S. Geological Survey (USGS) conducted this applied research into the application of the MODFLOW-Conduit Flow Process at the Woodville Karst Plain with the voluntary assistance of Josue J. Gallegos a graduate student at Florida State University. Josue Gallegos converted a USGS MODFLOW model of the area developed by Hal Davis into a hybrid model using MODFLOW-Conduit Flow Process with the assistance of Hal Davis, Eve Kuniansky, and Barclay Shoemaker (USGS). </supplinf>
    </descript>
    <timeperd>
      <timeinfo>
        <rngdates>
          <begdate>19660101</begdate>
          <enddate>20181231</enddate>
        </rngdates>
      </timeinfo>
      <current>publication date</current>
    </timeperd>
    <status>
      <progress>Complete</progress>
      <update>Not planned</update>
    </status>
    <spdom>
      <bounding>
        <westbc>-84.47830504</westbc>
        <eastbc>-84.06306787</eastbc>
        <northbc>30.44950966</northbc>
        <southbc>30.05139406</southbc>
      </bounding>
    </spdom>
    <keywords>
      <theme>
        <themekt>None</themekt>
        <themekey>usgsgroundwatermodel</themekey>
        <themekey>geoscientificInformation</themekey>
        <themekey>inlandWaters</themekey>
        <themekey>environment</themekey>
        <themekey>karst</themekey>
        <themekey>MODFLOW</themekey>
        <themekey>MODFLOW-CFP</themekey>
        <themekey>groundwater</themekey>
        <themekey>groundwater simulation</themekey>
      </theme>
      <theme>
        <themekt>ISO 19115 Topic Category</themekt>
        <themekey>geoscientificInformation</themekey>
        <themekey>inlandWaters</themekey>
        <themekey>environment</themekey>
      </theme>
      <place>
        <placekt>Geographic Names Information System</placekt>
        <placekey>Florida</placekey>
        <placekey>Tallahassee</placekey>
        <placekey>Floridan aquifer</placekey>
        <placekey>Woodville Karst Plain</placekey>
        <placekey>Leon County</placekey>
        <placekey>Wakulla County</placekey>
        <placekey>Wakulla Springs</placekey>
      </place>
    </keywords>
    <accconst>None. Acknowledgement of the U.S. Geological Survey would be appreciated in products derived from this data release.</accconst>
    <useconst>none</useconst>
    <ptcontac>
      <cntinfo>
        <cntperp>
          <cntper>Eve L. Kuniansy</cntper>
          <cntorg>U.S. Geological Survey</cntorg>
        </cntperp>
        <cntaddr>
          <addrtype>mailing and physical</addrtype>
          <address>1770 Corporate Drive, Suite 500</address>
          <city>Norcross</city>
          <state>GA.</state>
          <postal>30093</postal>
          <country>USA</country>
        </cntaddr>
        <cntvoice>678-924-6621</cntvoice>
        <cntemail>elkunian@usgs.gov</cntemail>
      </cntinfo>
    </ptcontac>
    <browse>
      <browsen>https://water.usgs.gov/GIS/browse/sir2016_5116_thumbnail.jpg</browsen>
      <browsed>Image of the approximate study area and model area.</browsed>
      <browset>jpg</browset>
    </browse>
    <datacred>Water Use and Availability Science Program of the U.S. Geological Survey</datacred>
  </idinfo>
  <dataqual>
    <attracc>
      <attraccr>Simulated potentiometric head and springflow were compared for some simulations and only springflow compared for storm simulation.</attraccr>
    </attracc>
    <logic>No formal logical accuracy tests were conducted and not all example simulations meet calibration criteria.</logic>
    <complete>Simulation users are advised to read metadata records and the associated scientific investigations report (https://dx.doi.org/10.3133/sir20165116).</complete>
    <posacc>
      <horizpa>
        <horizpar>No formal positional accuracy tests were conducted</horizpar>
      </horizpa>
      <vertacc>
        <vertaccr>No formal positional accuracy tests were conducted</vertaccr>
      </vertacc>
    </posacc>
    <lineage>
      <procstep>
        <procdesc>The process used to develop, calibrate, and apply the MODFLOW groundwater model is fully described in the model documentation report (https://pubs.usgs.gov/sir/2010/5099/). The experimental simulations with MODFLOW-Conduit Flow Process are described in (https://dx.doi.org/10.3133/sir20165116).</procdesc>
        <procdate>2016</procdate>
      </procstep>
    </lineage>
  </dataqual>
  <spdoinfo>
    <direct>raster</direct>
    <rastinfo>
      <rasttype>pixel</rasttype>
    </rastinfo>
  </spdoinfo>
  <spref>
    <horizsys>
      <planar>
        <mapproj>
          <mapprojn>Albers_Equal_Area_Conic_USGS_CONUS_NAD83_NEW</mapprojn>
          <albers>
            <stdparll>29.5</stdparll>
            <stdparll>45.5</stdparll>
            <longcm>-83.0</longcm>
            <latprjo>23.0</latprjo>
            <feast>0.0</feast>
            <fnorth>0.0</fnorth>
          </albers>
        </mapproj>
        <planci>
          <plance>row and column</plance>
          <coordrep>
            <absres>499.22</absres>
            <ordres>499.34</ordres>
          </coordrep>
          <plandu>feet</plandu>
        </planci>
      </planar>
    </horizsys>
    <vertdef>
      <altsys>
        <altdatum>National Geodetic Vertical Datum of 1929</altdatum>
        <altres>1.0</altres>
        <altunits>feet</altunits>
        <altenc>Attribute values</altenc>
      </altsys>
    </vertdef>
  </spref>
  <eainfo>
    <detailed>
      <enttyp>
        <enttypl>sir2016_5116.shp</enttypl>
        <enttypd>ESRI Polygon shapefile</enttypd>
        <enttypds>U.S. Geological Survey</enttypds>
      </enttyp>
      <attr>
        <attrlabl>TYPE</attrlabl>
        <attrdef>Text string indicating the polygon represents the active and inactive simulated area.</attrdef>
        <attrdefs>https://dx.doi.org/10.3133/sir20165116</attrdefs>
        <attrdomv>
          <edom>
            <edomv>usgsgroundwatermodel</edomv>
            <edomvd>Simulation area.</edomvd>
            <edomvds>https://dx.doi.org/10.3133/sir20165116</edomvds>
          </edom>
        </attrdomv>
      </attr>
    </detailed>
    <overview>
      <eaover>Kuniansky, E.L., 2016, MODFLOW and MODFLOW Conduit Flow Process simulation experiments of the Woodville Karst Plain, near Tallahassee, Florida with three different approaches and different stress periods: U.S. Geological Survey data release.</eaover>
      <eadetcit>https://dx.doi.org/10.5066/F7PK0D87</eadetcit>
    </overview>
  </eainfo>
  <distinfo>
    <distrib>
      <cntinfo>
        <cntperp>
          <cntper>Ask USGS -- Water Webserver Team</cntper>
          <cntorg>U.S. Geological Survey</cntorg>
        </cntperp>
        <cntaddr>
          <addrtype>mailing and physical</addrtype>
          <address>445 National Center</address>
          <city>Reston</city>
          <state>Virginia</state>
          <postal>20192</postal>
          <country>USA</country>
        </cntaddr>
        <cntvoice>1-888-275-8747 (1-888-ASK-USGS)</cntvoice>
        <cntemail>https://water.usgs.gov/user_feedback_form.html</cntemail>
      </cntinfo>
    </distrib>
    <distliab>Although these data sets have been used by the U.S. Geological Survey, U.S. Department of the Interior, no warranty expressed or implied is made by the U.S. Geological Survey as to the accuracy of the data and related materials. The act of distribution shall not constitute any such warranty, and no responsibility is assumed by the U.S. Geological Survey in the use of this data, software, or related materials.
			
    Any use of trade, product, or firm names is for descriptive purposes only and does not imply endorsement by the U.S. Government.</distliab>
    <stdorder>
      <digform>
        <digtinfo>
          <formname>readme1st.txt</formname>
          <formvern>none</formvern>
          <formspec>.txt ASCII text file</formspec>
          <formcont>This text file contains the description of the full directory structure and files contained within the data release; and directions on how to run the model scenarios. </formcont>
          <transize>0.01</transize>
        </digtinfo>
        <digtopt>
          <onlinopt>
            <computer>
              <networka>
                <networkr>https://water.usgs.gov/GIS/dsdl/gwmodels/SIR2016-5116/readme1st.txt</networkr>
              </networka>
            </computer>
          </onlinopt>
        </digtopt>
      </digform>
      <digform>
        <digtinfo>
          <formname>modelgeoref.txt</formname>
          <formvern>none</formvern>
          <formspec>.txt ASCII text file</formspec>
          <formcont>Latitude and longitude coordinates of corners of the model area</formcont>
          <transize>0.002</transize>
        </digtinfo>
        <digtopt>
          <onlinopt>
            <computer>
              <networka>
                <networkr>https://water.usgs.gov/GIS/dsdl/gwmodels/SIR2016-5116/modelgeoref.txt</networkr>
              </networka>
            </computer>
          </onlinopt>
        </digtopt>
      </digform>
      <digform>
        <digtinfo>
          <formname>ancillary.zip</formname>
          <formvern>none</formvern>
          <formspec>.zip compressed archive of files</formspec>
          <formcont>Useful information about simulations</formcont>
          <transize>36.4</transize>
        </digtinfo>
        <digtopt>
          <onlinopt>
            <computer>
              <networka>
                <networkr>https://water.usgs.gov/GIS/dsdl/gwmodels/SIR2016-5116/ancillary.zip</networkr>
              </networka>
            </computer>
          </onlinopt>
        </digtopt>
      </digform>
      <digform>
        <digtinfo>
          <formname>bin.zip</formname>
          <formvern>none</formvern>
          <formspec>.zip compressed archive of files</formspec>
          <formcont>Groundwater model code executable files</formcont>
          <transize>13.2</transize>
        </digtinfo>
        <digtopt>
          <onlinopt>
            <computer>
              <networka>
                <networkr>https://water.usgs.gov/GIS/dsdl/gwmodels/SIR2016-5116/bin.zip</networkr>
              </networka>
            </computer>
          </onlinopt>
        </digtopt>
      </digform>
      <digform>
        <digtinfo>
          <formname>georef.zip</formname>
          <formvern>none</formvern>
          <formspec>.zip compressed archive of files</formspec>
          <formcont>Shape files of active and inactive groundwater model area</formcont>
          <transize>0.007</transize>
        </digtinfo>
        <digtopt>
          <onlinopt>
            <computer>
              <networka>
                <networkr>https://water.usgs.gov/GIS/dsdl/gwmodels/SIR2016-5116/georef.zip</networkr>
              </networka>
            </computer>
          </onlinopt>
        </digtopt>
      </digform>
      <digform>
        <digtinfo>
          <formname>model.zip</formname>
          <formvern>none</formvern>
          <formspec>.zip compressed archive of files</formspec>
          <formcont>Groundwater simulation input files</formcont>
          <transize>38.5</transize>
        </digtinfo>
        <digtopt>
          <onlinopt>
            <computer>
              <networka>
                <networkr>https://water.usgs.gov/GIS/dsdl/gwmodels/SIR2016-5116/model.zip</networkr>
              </networka>
            </computer>
          </onlinopt>
        </digtopt>
      </digform>
      <digform>
        <digtinfo>
          <formname>output.zip</formname>
          <formvern>none</formvern>
          <formspec>.zip compressed archive of files</formspec>
          <formcont>Groundwater simulation output files</formcont>
          <transize>1.6</transize>
        </digtinfo>
        <digtopt>
          <onlinopt>
            <computer>
              <networka>
                <networkr>https://water.usgs.gov/GIS/dsdl/gwmodels/SIR2016-5116/output.zip</networkr>
              </networka>
            </computer>
          </onlinopt>
        </digtopt>
      </digform>
      <digform>
        <digtinfo>
          <formname>source.zip</formname>
          <formvern>none</formvern>
          <formspec>.zip compressed archive of files</formspec>
          <formcont>Groundwater simulation executable, documents, and source code</formcont>
          <transize>32.3</transize>
        </digtinfo>
        <digtopt>
          <onlinopt>
            <computer>
              <networka>
                <networkr>https://water.usgs.gov/GIS/dsdl/gwmodels/SIR2016-5116/source.zip</networkr>
              </networka>
            </computer>
          </onlinopt>
        </digtopt>
      </digform>
      <fees>None</fees>
    </stdorder>
  </distinfo>
  <metainfo>
    <metd>20160603</metd>
    <metc>
      <cntinfo>
        <cntorgp>
          <cntorg>U.S. Geological Survey</cntorg>
        </cntorgp>
        <cntpos>Ask USGS -- Water Webserver Team</cntpos>
        <cntaddr>
          <addrtype>mailing</addrtype>
          <address>445 National Center</address>
          <city>Reston</city>
          <state>Va.</state>
          <postal>20192</postal>
        </cntaddr>
        <cntvoice>1-888-275-8747 (1-888-ASK-USGS)</cntvoice>
        <cntemail>https://answers.usgs.gov/cgi-bin/gsanswers?pemail=h2oteam&amp;subject=GIS+Dataset+sir2016_5116</cntemail>
      </cntinfo>
    </metc>
    <metstdn>FGDC Content Standards for Digital Geospatial Metadata</metstdn>
    <metstdv>FGDC-STD-001-1998</metstdv>
  </metainfo>
  <mercury>
    <begdate>19660101</begdate>
    <enddate>20181231</enddate>
    <htmlurl>http://mercury-ops2.ornl.gov/metadata/devcatalog/html/Water_National_Spatial_Data_Infrastructure_Node/water.usgs.gov_GIS_metadata_usgswrd_XML_sir2016-5116.html</htmlurl>
  </mercury>
</metadata>
