<?xml version="1.0" encoding="ISO-8859-1"?>
<metadata xmlns:xsi="https://www.w3.org/2001/XMLSchema-instance" xsi:noNamespaceSchemaLocation="https://water.usgs.gov/GIS/metadata/usgswrd/fgdc-std-001-1998.xsd">
  <Source>http://water.usgs.gov/GIS/metadata/usgswrd/XML/pp1766_corcoran_clay_depth_feet.xml</Source>
  <idinfo>
    <citation>
      <citeinfo>
        <origin>Faunt, Claudia C.</origin>
        <pubdate>2012</pubdate>
        <title>Contours of Corcoran Clay Depth in feet from Page (1986) for the Central Valley Hydrologic Model (CVHM)</title>
        <geoform>vector digital data</geoform>
        <serinfo>
          <sername>Professional Paper</sername>
          <issue>1766</issue>
        </serinfo>
        <pubinfo>
          <pubplace>Reston, Virginia</pubplace>
          <publish>U.S. Geological Survey</publish>
        </pubinfo>
        <onlink>https://water.usgs.gov/lookup/getspatial?pp1766_corcoran_clay_depth_feet</onlink>
        <lworkcit>
          <citeinfo>
            <origin>Faunt, Claudia C.</origin>
            <pubdate>2009</pubdate>
            <title>Groundwater Availability of the Central Valley Aquifer, California</title>
            <serinfo>
              <sername>Professional Paper</sername>
              <issue>1766</issue>
            </serinfo>
            <pubinfo>
              <pubplace>Reston, VA</pubplace>
              <publish>U.S. Geological Survey</publish>
            </pubinfo>
            <othercit>3 Chapters, 5 Plates</othercit>
            <onlink>https://pubs.usgs.gov/pp/1766/PP_1766.pdf</onlink>
          </citeinfo>
        </lworkcit>
      </citeinfo>
    </citation>
    <descript>
      <abstract>This digital dataset defines the depth of the Corcoran Clay Member of the Tulare Formation. The complex hydrologic system of the Central Valley is simulated using the USGS numerical modeling code MODFLOW-FMP (Schmid and others, 2006b).  This simulation is referred to here as the Central Valley Hydrologic Model (CVHM) (Faunt, 2009). Utilizing MODFLOW-FMP, the CVHM simulates groundwater and surface-water flow, irrigated agriculture, land subsidence, and other key processes in the Central Valley on a monthly basis from 1961-2003.  Numerous lenses of fine-grained sediments are distributed throughout the southern Central Valley (San Joaquin Valley) and generally constitute more than 50 percent of the total thickness of the valley fill. Generally, these lenses are discontinuous and not vertically extensive or laterally continuous. However, the Corcoran Clay is a low-permeability, areally extensive, lacustrine deposit (Johnson and others, 1968) as much as 200-ft thick (Davis and others, 1959; Page, 1986). This continuous clay divides the groundwater-flow system of the western San Joaquin Valley into an upper semi-confined zone and a lower confined zone (Williamson and others, 1989; Belitz and Heimes, 1990; Burow and others, 2004).  The extent and distribution of the Corcoran Clay was defined for use in the CVHM because the unit is one of the few deposits in the Valley that can be regionally mapped. The CVHM is the most recent regional-scale model of the Central Valley developed by the U.S. Geological Survey (USGS).  The CVHM was developed as part of the USGS Groundwater Resources Program (see "Foreword", Chapter A, page iii, for details).</abstract>
      <purpose>The depth of the Corcoran Clay Member of the Tulare Formation is used to help define the 3-dimensional extent of the Corcoran Clay for the CVHM. In the CVHM flow simulation, the Corcoran Clay is generally a fine-grained confining layer and is simulated separately by layers 4 and 5. The CVHM is a tool that accounts for integrated, variable water supply and demand, and simulates surface-water and groundwater-flow across the entire Central Valley system.</purpose>
      <supplinf>The depth of the Corcoran Clay dataset is one of many layers in a geospatial database supporting the USGS Central Valley Groundwater Availability Project. Regional groundwater availability studies quantify current groundwater resources, evaluate how those resources have changed through time, and provide tools that decision makers can use to predict system responses to future development and climate variability and change. To provide information to stakeholders addressing these issues, the USGS made a detailed assessment of groundwater availability of the Central Valley aquifer system, which includes: (1) the present status of groundwater resources; (2) characterization of how these resources have changed over time; and (3) tools to assess system responses to stresses from future human uses and climate variability and change. This effort builds on previous investigations, such as the USGS Central Valley Regional Aquifer System and Analysis (CV-RASA) project and several other groundwater studies in the Valley completed by Federal, State and local agencies at various scales. Data from these previous studies were the foundation of the Central Valley geospatial database. These and other data were re-examined through a series of regional-scale hydrologic investigations to provide updated and spatially consistent interpretations for the Central Valley Groundwater Availability study. In some cases, new data were collected to augment existing information. Data compiled from the studies include geology (in particular, borehole lithology and the extent and thickness of the Corcoran Clay Member of the Tulare Formation), topography, remote sensing, climate (precipitation and temperature), geophysics, vegetation and land use, vegetation properties, hydrology (stream network and flows), groundwater levels, subsidence, chemistry, and soils.  Digital elevation models, geologic maps, borehole information, cross sections, and other 3-dimensional models were used to develop the texture model which represents the properties and geometry of the Central Valley alluvial deposits. The resulting geospatial database supports characterization and conceptualization of the Central Valley hydrologic system between 1961 and 2003, construction of 3-dimensional hydrogeologic framework and hydrologic flow models, and visualization of analysis and model results.</supplinf>
    </descript>
    <timeperd>
      <timeinfo>
        <sngdate>
          <caldate>2009</caldate>
        </sngdate>
      </timeinfo>
      <current>publication date</current>
    </timeperd>
    <status>
      <progress>Complete</progress>
      <update>None planned</update>
    </status>
    <spdom>
      <bounding>
        <westbc>-121.504203</westbc>
        <eastbc>-118.758069</eastbc>
        <northbc>37.793811</northbc>
        <southbc>35.004248</southbc>
      </bounding>
    </spdom>
    <keywords>
      <theme>
        <themekt>ISO 19115 Topic Category</themekt>
        <themekey>geoscientificinformation</themekey>
      </theme>
      <theme>
        <themekt>American Geological Institute Glossary of Geology (http://glossary.agiweb.org/dbtw-wpd/glossary/search.aspx)</themekt>
        <themekey>hydrology</themekey>
        <themekey>hydrogeology</themekey>
        <themekey>model</themekey>
        <themekey>groundwater</themekey>
      </theme>
      <theme>
        <themekt>none</themekt>
        <themekey>Central Valley Aquifer</themekey>
        <themekey>Central Valley Hydrologic Model</themekey>
        <themekey>Flow Model CVHM</themekey>
        <themekey>Texture Model</themekey>
        <themekey>CV-RASA</themekey>
        <themekey>Groundwater Availability of the Central Valley Aquifer</themekey>
        <themekey>Corcoran Clay</themekey>
        <themekey>discretization</themekey>
      </theme>
      <place>
        <placekt>U.S. Board of Geographic Names (BGN) and Geographic Names Information System (GNIS)</placekt>
        <placekey>California</placekey>
        <placekey>Central Valley</placekey>
        <placekey>San Joaquin County</placekey>
        <placekey>Stanislaus County</placekey>
        <placekey>Merced County</placekey>
        <placekey>Madera County</placekey>
        <placekey>Fresno County</placekey>
        <placekey>Tulare County</placekey>
        <placekey>Kings County</placekey>
        <placekey>Kern County</placekey>
      </place>
    </keywords>
    <accconst>None</accconst>
    <useconst>
Data have been checked to ensure the accuracy of the data. If any errors are detected, please notify the originating office. The U.S. Geological Survey strongly recommends that careful attention be paid to the metadata file associated with these data. The U.S. Geological Survey shall not be held liable for improper or incorrect use of the data described and (or) contained herein.

Acknowledgement of the U.S. Geological Survey would be appreciated in products derived from these data.

Any use of trade, product, or firm names is for descriptive purposes only and does not imply endorsement by the U.S. Government. Although this Federal Geographic Data Committee-compliant metadata file is intended to document the dataset in nonproprietary form, as well as in ArcGIS format, this metadata file may include some ArcGIS-specific terminology.
</useconst>
    <ptcontac>
      <cntinfo>
        <cntperp>
          <cntper>Claudia C. Faunt</cntper>
          <cntorg>US Geological Survey</cntorg>
        </cntperp>
        <cntpos>Hydrologist</cntpos>
        <cntaddr>
          <addrtype>mailing and physical address</addrtype>
          <address>4165 Spruance Road, Suite 200</address>
          <city>San Diego</city>
          <state>CA</state>
          <postal>92101</postal>
          <country>USA</country>
        </cntaddr>
        <cntvoice>6192256142</cntvoice>
        <cntemail>ccfaunt@usgs.gov</cntemail>
      </cntinfo>
    </ptcontac>
    <browse>
      <browsen>https://water.usgs.gov/GIS/browse/pp1766_corcoran_clay_depth.png</browsen>
      <browsed>Illlustration of data set</browsed>
      <browset>png</browset>
    </browse>
    <datacred>Spatial datasets supporting the Central Valley Groundwater Availability project were developed primarily by the U.S. Geological Survey's (USGS) Groundwater Resources Program.  This program is conducting large-scale multidisciplinary regional studies of groundwater availability.  The U.S. Bureau of Reclamation is supporting the updating of the Central Valley datasets and their documentation and release.</datacred>
    <native>Microsoft Windows XP Version 5.1 (Build 2600) Service Pack 3; ESRI ArcCatalog 9.3.1.3500</native>
    <crossref>
      <citeinfo>
        <origin>Johnson, A. I.</origin>
        <origin>Moston, R. P.</origin>
        <origin>Morris, D. A.</origin>
        <pubdate>1968</pubdate>
        <title>Physical and hydrologic properties of water-bearing deposits in subsiding areas in central California</title>
        <geoform>atlas</geoform>
        <serinfo>
          <sername>Professional Paper</sername>
          <issue>497-A</issue>
        </serinfo>
        <pubinfo>
          <pubplace>Reston, VA</pubplace>
          <publish>U.S. Geological Survey</publish>
        </pubinfo>
        <onlink>https://pubs.usgs.gov/pp/0497a/report.pdf</onlink>
      </citeinfo>
    </crossref>
    <crossref>
      <citeinfo>
        <origin>Schmid, Wolfgang</origin>
        <origin>Hanson, R. T.</origin>
        <origin>Maddock, Thomas, III</origin>
        <origin>Leake, S. A.</origin>
        <pubdate>2006b</pubdate>
        <title>User guide for the farm process (FMP1) for the U.S. Geological Survey's modular three-dimensional finite-difference ground-water flow model, MODFLOW-2000</title>
        <serinfo>
          <sername>Techniques and Methods</sername>
          <issue>6-A17</issue>
        </serinfo>
        <pubinfo>
          <pubplace>Sacramento, CA</pubplace>
          <publish>USGS California Water Science Center</publish>
        </pubinfo>
        <onlink>https://pubs.usgs.gov/tm/2006/tm6A17/</onlink>
      </citeinfo>
    </crossref>
    <crossref>
      <citeinfo>
        <origin>Davis, G. H.</origin>
        <origin>Green, J. H.</origin>
        <origin>Olmsted F. H.</origin>
        <origin>Brown, D. W.</origin>
        <pubdate>1959</pubdate>
        <title>Ground-water conditions and storage capacity in the San Joaquin Valley, California</title>
        <serinfo>
          <sername>Water Supply Paper</sername>
          <issue>1469</issue>
        </serinfo>
        <pubinfo>
          <pubplace>Reston, VA</pubplace>
          <publish>U.S. Geological Survey</publish>
        </pubinfo>
        <onlink>https://pubs.usgs.gov/wsp/1469/report.pdf</onlink>
      </citeinfo>
    </crossref>
    <crossref>
      <citeinfo>
        <origin>Page, R. W.</origin>
        <pubdate>1986</pubdate>
        <title>Geology of the Fresh Ground-Water Basin of the Central Valley, California, with Texture Maps and Sections</title>
        <serinfo>
          <sername>Professional Paper</sername>
          <issue>1401-C</issue>
        </serinfo>
        <pubinfo>
          <pubplace>Reston, VA</pubplace>
          <publish>U.S. Geological Survey</publish>
        </pubinfo>
        <onlink>https://pubs.usgs.gov/pp/1401c/report.pdf</onlink>
      </citeinfo>
    </crossref>
    <crossref>
      <citeinfo>
        <origin>Williamson, A. K.</origin>
        <origin>Prudic, D. E.</origin>
        <origin>Swain, L. A.</origin>
        <pubdate>1989</pubdate>
        <title>Ground-water flow in the Central Valley, California</title>
        <serinfo>
          <sername>Professional Paper</sername>
          <issue>1401-D</issue>
        </serinfo>
        <pubinfo>
          <pubplace>Reston, VA</pubplace>
          <publish>U.S. Geological Survey</publish>
        </pubinfo>
        <onlink>https://pubs.usgs.gov/pp/1401d/report.pdf</onlink>
      </citeinfo>
    </crossref>
    <crossref>
      <citeinfo>
        <origin>Belitz, Kenneth R.</origin>
        <origin>Heimes, Frederick J.</origin>
        <pubdate>1990</pubdate>
        <title>Character and evolution of the ground-water flow system in the central part of the western San Joaquin Valley, California</title>
        <serinfo>
          <sername>Water Supply Paper</sername>
          <issue>2348</issue>
        </serinfo>
        <pubinfo>
          <pubplace>Reston, VA</pubplace>
          <publish>U.S. Geological Survey</publish>
        </pubinfo>
        <onlink>https://pubs.usgs.gov/wsp/2348/report.pdf</onlink>
      </citeinfo>
    </crossref>
    <crossref>
      <citeinfo>
        <origin>Burow, Karen R.</origin>
        <origin>Shelton, Jennifer L.</origin>
        <origin>Hevesi, Joseph A.</origin>
        <origin>Weissmann, Gary S.</origin>
        <pubdate>2004</pubdate>
        <title>Hydrogeologic characterization of the Modesto Area, San Joaquin Valley, California</title>
        <serinfo>
          <sername>Scientific Investigations Report</sername>
          <issue>2004-5232</issue>
        </serinfo>
        <pubinfo>
          <pubplace>Reston, VA</pubplace>
          <publish>U.S. Geological Survey</publish>
        </pubinfo>
        <onlink>https://pubs.usgs.gov/sir/2004/5232/</onlink>
      </citeinfo>
    </crossref>
  </idinfo>
  <dataqual>
    <attracc>
      <attraccr>Attributes added by the GIS and the data-set author were checked by inspection using a GIS. In addition, attributes were checked and evaluated as part of the review process associated with the publication of the source report.</attraccr>
    </attracc>
    <logic>Lines forming polygons join at endpoints to completely enclose defined areas. Lines not enclosing areas do not intersect. No duplicate line features exist and all nodes are represented by a single coordinate pair which indicates the beginning or end of a line. All vertices that define the shape of the line are represented by a unique coordinate pair.</logic>
    <complete>The line features in this dataset are computer-generated and represent the Corcorcan Clay depth layers in the Central Valley Hydrologic Model. The dataset is complete and is not anticipated to change.</complete>
    <posacc>
      <horizpa>
        <horizpar>Horizontal positional accuracy of line features in the dataset was tested by visually comparing to digital source maps by using a GIS system.</horizpar>
      </horizpa>
    </posacc>
    <lineage>
      <srcinfo>
        <srccite>
          <citeinfo>
            <origin>Faunt, C. C.</origin>
            <origin>Hanson, R.T.</origin>
            <origin>Belitz, K.</origin>
            <pubdate>2009</pubdate>
            <title>Chapter A - Introduction, Overview of Hydrogeology, and Textural Model of California's Central Valley</title>
            <geoform>document</geoform>
            <serinfo>
              <sername>U.S. Geological Survey Professional Paper</sername>
              <issue>2009-1766</issue>
            </serinfo>
            <pubinfo>
              <pubplace>Reston, Virginia</pubplace>
              <publish>U.S. Geological Survey</publish>
            </pubinfo>
            <onlink>https://pubs.usgs.gov/pp/1766/PP_1766.pdf</onlink>
            <lworkcit>
              <citeinfo>
                <origin>Faunt, C.C.</origin>
                <pubdate>2009</pubdate>
                <title>Groundwater Availability of the Central Valley Aquifer, California</title>
                <serinfo>
                  <sername>U.S. Geological Survey Professional Paper</sername>
                  <issue>2009-1766</issue>
                </serinfo>
                <pubinfo>
                  <pubplace>Reston, Virginia</pubplace>
                  <publish>U.S. Geological Survey</publish>
                </pubinfo>
              </citeinfo>
            </lworkcit>
          </citeinfo>
        </srccite>
        <srcscale>500000</srcscale>
        <typesrc>online</typesrc>
        <srctime>
          <timeinfo>
            <sngdate>
              <caldate>2009</caldate>
            </sngdate>
          </timeinfo>
          <srccurr>publication date</srccurr>
        </srctime>
        <srccitea>Faunt and others (2009)</srccitea>
        <srccontr>See Professional Paper 1766 - Groundwater Availability of the Central Valley Aquifer, California.</srccontr>
      </srcinfo>
      <srcinfo>
        <srccite>
          <citeinfo>
            <origin>Page, R. W.</origin>
            <pubdate>1986</pubdate>
            <title>Geology of the fresh ground-water basin of the Central Valley, California, with texture maps and sections</title>
            <serinfo>
              <sername>Professional Paper</sername>
              <issue>1401-C</issue>
            </serinfo>
            <pubinfo>
              <pubplace>Reston, VA</pubplace>
              <publish>U.S. Geologic Survey</publish>
            </pubinfo>
            <onlink>http://ngmdb.usgs.gov/Prodesc/proddesc_4831.htm</onlink>
          </citeinfo>
        </srccite>
        <typesrc>online</typesrc>
        <srctime>
          <timeinfo>
            <sngdate>
              <caldate>2009</caldate>
            </sngdate>
          </timeinfo>
          <srccurr>publication date</srccurr>
        </srctime>
        <srccitea>Page (1986)</srccitea>
        <srccontr>Corcoran Clay depth linework and cuntour values</srccontr>
      </srcinfo>
      <procstep>
        <procdesc>The 1:500,000 scale plate  of the contour lines was scanned  into a 300 dots per inch .tiff image  A GIS was used to georeference and trace/digitize the contour lines by hand into a shapefile.  Each contour-line attribute was populated with the depth (in feet) of the Corcoran Clay.</procdesc>
        <srcused>Page (1986)</srcused>
        <procdate>Unknown</procdate>
        <proctime>08303600</proctime>
        <proccont>
          <cntinfo>
            <cntperp>
              <cntper>Faunt, C.C.</cntper>
              <cntorg>USGS</cntorg>
            </cntperp>
            <cntpos>Hydrologist</cntpos>
            <cntaddr>
              <addrtype>mailing and physical address</addrtype>
              <address>4165 Spruance Road, Suite 200</address>
              <city>San Diego</city>
              <state>CA</state>
              <postal>92101</postal>
              <country>USA</country>
            </cntaddr>
            <cntvoice>(619) 225-6142</cntvoice>
            <cntemail>ccfaunt@usgs.gov</cntemail>
          </cntinfo>
        </proccont>
      </procstep>
    </lineage>
  </dataqual>
  <spdoinfo>
    <indspref>Central Valley, comprised of the Sacramento Valley on the north and the San Joaquin Valley on the south, located in the state of California.</indspref>
    <direct>Vector</direct>
    <ptvctinf>
      <sdtsterm>
        <sdtstype>String</sdtstype>
        <ptvctcnt>220</ptvctcnt>
      </sdtsterm>
    </ptvctinf>
  </spdoinfo>
  <spref>
    <horizsys>
      <planar>
        <mapproj>
          <mapprojn>Albers Conical Equal Area</mapprojn>
          <albers>
            <stdparll>29.500000</stdparll>
            <stdparll>45.500000</stdparll>
            <longcm>-120.000000</longcm>
            <latprjo>23.000000</latprjo>
            <feast>0.000000</feast>
            <fnorth>0.000000</fnorth>
          </albers>
        </mapproj>
        <planci>
          <plance>coordinate pair</plance>
          <coordrep>
            <absres>100</absres>
            <ordres>100</ordres>
          </coordrep>
          <plandu>meters</plandu>
        </planci>
      </planar>
      <geodetic>
        <horizdn>North American Datum of 1983</horizdn>
        <ellips>Geodetic Reference System 80</ellips>
        <semiaxis>6378137.000000</semiaxis>
        <denflat>298.257222</denflat>
      </geodetic>
    </horizsys>
  </spref>
  <eainfo>
    <detailed>
      <enttyp>
        <enttypl>corcoran_clay_depth_feet</enttypl>
        <enttypd>Depth to top of Corcoran Clay, in feet</enttypd>
        <enttypds>dataset originator</enttypds>
      </enttyp>
      <attr>
        <attrlabl>FID</attrlabl>
        <attrdef>Internal feature number.</attrdef>
        <attrdefs>ESRI</attrdefs>
        <attrdomv>
          <udom>Sequential unique whole numbers that are automatically generated.</udom>
        </attrdomv>
      </attr>
      <attr>
        <attrlabl>Shape</attrlabl>
        <attrdef>Feature geometry.</attrdef>
        <attrdefs>ESRI</attrdefs>
        <attrdomv>
          <udom>Coordinates defining the features.</udom>
        </attrdomv>
      </attr>
      <attr>
        <attrlabl>COR_DEPTH</attrlabl>
        <attrdef>Depth to top of Corcoran Clay, in feet</attrdef>
        <attrdefs>Page (1986)</attrdefs>
        <attrdomv>
          <rdom>
            <rdommin>50</rdommin>
            <rdommax>900</rdommax>
            <attrunit>Feet</attrunit>
            <attrmres>50</attrmres>
          </rdom>
        </attrdomv>
      </attr>
    </detailed>
    <overview>
      <eaover>There are 220 records in this shapefile. It has 2 attributes that are generated by the GIS (FID, and Shape) for internal software purposes. The remaining attribute was assigned by the author (dataset Originator) to define and describe the depth to the top of the Corcoran Clay layer in feet. These data were used for analysis and for developing input files for the CVHM textural model and numerical ground-water flow model.</eaover>
      <eadetcit>none.</eadetcit>
    </overview>
  </eainfo>
  <distinfo>
    <distrib>
      <cntinfo>
        <cntorgp>
          <cntorg>U.S. Geological Survey</cntorg>
        </cntorgp>
        <cntpos>Ask USGS -- Water Webserver Team</cntpos>
        <cntaddr>
          <addrtype>mailing address</addrtype>
          <address>445 National Center</address>
          <city>Reston</city>
          <state>VA</state>
          <postal>20192</postal>
          <country>USA</country>
        </cntaddr>
        <cntvoice>1-888-275-8747 (1-888-ASK-USGS)</cntvoice>
        <cntemail>https://water.usgs.gov/user_feedback_form.html</cntemail>
      </cntinfo>
    </distrib>
    <resdesc>
Downloadable Data
Digital geospatial datasets for the textural model and numerical model of the hydrogeologic landscape and groundwater flow in California's Central Valley.
</resdesc>
    <distliab>Although these data have been used by the U.S. Geological Survey, U.S. Department of the Interior, no warranty expressed or implied is made by the U.S. Geological Survey as to the accuracy of the data.  The act of distribution shall not constitute any such warranty, and no responsibility is assumed by the U.S. Geological Survey in the use of these data, software, or related materials.
The use of firm, trade, or brand names in this report is for identification purposes only and does not constitute endorsement by the U.S. Geological Survey.  The names mentioned in this document may be trademarks or registered trademarks of their respective trademark owners.</distliab>
    <stdorder>
      <digform>
        <digtinfo>
          <formname>SHP</formname>
          <formvern>ESRI Shapefile</formvern>
          <transize>0.0388183594</transize>
        </digtinfo>
        <digtopt>
          <onlinopt>
            <computer>
              <networka>
                <networkr>https://water.usgs.gov/GIS/dsdl/pp1766_CorcoranClay.zip</networkr>
              </networka>
            </computer>
          </onlinopt>
        </digtopt>
      </digform>
      <fees>None. This dataset is provided by the USGS as a public service.</fees>
    </stdorder>
    <availabl>
      <timeinfo>
        <sngdate>
          <caldate>2011</caldate>
        </sngdate>
      </timeinfo>
    </availabl>
  </distinfo>
  <metainfo>
    <metd>20120824</metd>
    <metc>
      <cntinfo>
        <cntorgp>
          <cntorg>U.S. Geological Survey</cntorg>
        </cntorgp>
        <cntpos>Ask USGS -- Water Webserver Team</cntpos>
        <cntaddr>
          <addrtype>mailing address</addrtype>
          <address>445 National Center</address>
          <city>Reston</city>
          <state>VA</state>
          <postal>20192</postal>
          <country>USA</country>
        </cntaddr>
        <cntvoice>1-888-275-8747 (1-888-ASK-USGS)</cntvoice>
        <cntemail>https://answers.usgs.gov/cgi-bin/gsanswers?pemail=h2oteam&amp;subject=GIS+Datase+pp1766_corcoran_clay_depth_feet</cntemail>
      </cntinfo>
    </metc>
    <metstdn>FGDC Content Standards for Digital Geospatial Metadata</metstdn>
    <metstdv>FGDC-STD-001-1998</metstdv>
  </metainfo>
  <mercury>
    <begdate>20090101</begdate>
    <enddate>20091231</enddate>
    <htmlurl>http://mercury-ops2.ornl.gov/metadata/devcatalog/html/Water_National_Spatial_Data_Infrastructure_Node/water.usgs.gov_GIS_metadata_usgswrd_XML_pp1766_corcoran_clay_depth_feet.html</htmlurl>
  </mercury>
</metadata>
